
**** 05/13/20 10:25:39 ******* PSpice Lite (March 2016) ******* ID# 10813 ****

 ** Profile: "SCHEMATIC1-orcad9week5"  [ C:\Users\OHSEHOON\Desktop\pispice\orcad9week5-PSpiceFiles\SCHEMATIC1\orcad9week5.sim ] 


 ****     CIRCUIT DESCRIPTION


******************************************************************************




** Creating circuit file "orcad9week5.cir" 
** WARNING: THIS AUTOMATICALLY GENERATED FILE MAY BE OVERWRITTEN BY SUBSEQUENT SIMULATIONS

*Libraries: 
* Profile Libraries :
* Local Libraries :
* From [PSPICE NETLIST] section of C:\Users\OHSEHOON\AppData\Roaming\SPB_Data\cdssetup\OrCAD_PSpice\17.2.0\PSpice.ini file:
.lib "nomd.lib" 

*Analysis directives: 
.TRAN  0 2m 0 
.STEP PARAM cval LIST 0.001u, 0.01u, 0.1u 
.OPTIONS ADVCONV
.PROBE64 V(alias(*)) I(alias(*)) W(alias(*)) D(alias(*)) NOISE(alias(*)) 
.INC "..\SCHEMATIC1.net" 



**** INCLUDING SCHEMATIC1.net ****
* source ORCAD9WEEK5
V_V1         N00835 0  
+PULSE 0 10 0.5m 0.1n 0.1n 1m 2m
L_L1         N00835 N00843  10m  
C_C1         0 N00843  {cval}  TC=0,0 
.PARAM  cval=0.01u

**** RESUMING orcad9week5.cir ****
.END

**** 05/13/20 10:25:39 ******* PSpice Lite (March 2016) ******* ID# 10813 ****

 ** Profile: "SCHEMATIC1-orcad9week5"  [ C:\Users\OHSEHOON\Desktop\pispice\orcad9week5-PSpiceFiles\SCHEMATIC1\orcad9week5.sim ] 


 ****     INITIAL TRANSIENT SOLUTION       TEMPERATURE =   27.000 DEG C

 ****     CURRENT STEP                     PARAM CVAL =    1.0000E-09


******************************************************************************



 NODE   VOLTAGE     NODE   VOLTAGE     NODE   VOLTAGE     NODE   VOLTAGE


(N00835)    0.0000 (N00843)    0.0000 




    VOLTAGE SOURCE CURRENTS
    NAME         CURRENT

    V_V1         0.000E+00

    TOTAL POWER DISSIPATION   0.00E+00  WATTS


**** 05/13/20 10:25:39 ******* PSpice Lite (March 2016) ******* ID# 10813 ****

 ** Profile: "SCHEMATIC1-orcad9week5"  [ C:\Users\OHSEHOON\Desktop\pispice\orcad9week5-PSpiceFiles\SCHEMATIC1\orcad9week5.sim ] 


 ****     INITIAL TRANSIENT SOLUTION       TEMPERATURE =   27.000 DEG C

 ****     CURRENT STEP                     PARAM CVAL =   10.0000E-09


******************************************************************************



 NODE   VOLTAGE     NODE   VOLTAGE     NODE   VOLTAGE     NODE   VOLTAGE


(N00835)    0.0000 (N00843)    0.0000 




    VOLTAGE SOURCE CURRENTS
    NAME         CURRENT

    V_V1         0.000E+00

    TOTAL POWER DISSIPATION   0.00E+00  WATTS


**** 05/13/20 10:25:39 ******* PSpice Lite (March 2016) ******* ID# 10813 ****

 ** Profile: "SCHEMATIC1-orcad9week5"  [ C:\Users\OHSEHOON\Desktop\pispice\orcad9week5-PSpiceFiles\SCHEMATIC1\orcad9week5.sim ] 


 ****     INITIAL TRANSIENT SOLUTION       TEMPERATURE =   27.000 DEG C

 ****     CURRENT STEP                     PARAM CVAL =  100.0000E-09


******************************************************************************



 NODE   VOLTAGE     NODE   VOLTAGE     NODE   VOLTAGE     NODE   VOLTAGE


(N00835)    0.0000 (N00843)    0.0000 




    VOLTAGE SOURCE CURRENTS
    NAME         CURRENT

    V_V1         0.000E+00

    TOTAL POWER DISSIPATION   0.00E+00  WATTS



          JOB CONCLUDED

**** 05/13/20 10:25:39 ******* PSpice Lite (March 2016) ******* ID# 10813 ****

 ** Profile: "SCHEMATIC1-orcad9week5"  [ C:\Users\OHSEHOON\Desktop\pispice\orcad9week5-PSpiceFiles\SCHEMATIC1\orcad9week5.sim ] 


 ****     JOB STATISTICS SUMMARY

 ****     CURRENT STEP                     PARAM CVAL =  100.0000E-09


******************************************************************************



  Total job time (using Solver 1)   =         .05
