
**** 06/10/20 16:22:13 ******* PSpice Lite (March 2016) ******* ID# 10813 ****

 ** Profile: "SCHEMATIC1-orcad13week10"  [ C:\Users\OHSEHOON\Desktop\pispice\orcad13week10-PSpiceFiles\SCHEMATIC1\orcad13week10.sim ]


 ****     CIRCUIT DESCRIPTION


******************************************************************************




** Creating circuit file "orcad13week10.cir" 
** WARNING: THIS AUTOMATICALLY GENERATED FILE MAY BE OVERWRITTEN BY SUBSEQUENT SIMULATIONS

*Libraries: 
* Profile Libraries :
* Local Libraries :
.STMLIB "../../../orcad13week10-PSpiceFiles/ORCAD13WEEK10.stl" 
* From [PSPICE NETLIST] section of C:\Users\OHSEHOON\AppData\Roaming\SPB_Data\cdssetup\OrCAD_PSpice\17.2.0\PSpice.ini file:
.lib "nomd.lib" 

*Analysis directives: 
.TRAN  0 1.6u 0 
.OPTIONS ADVCONV
.PROBE64 V(alias(*)) I(alias(*)) W(alias(*)) D(alias(*)) NOISE(alias(*)) 
.INC "..\SCHEMATIC1.net" 



**** INCLUDING SCHEMATIC1.net ****
* source ORCAD13WEEK10
U_S0         STIM(1,0) $G_DPWR $G_DGND N00722 IO_STM STIMULUS=S0
U_S1         STIM(1,0) $G_DPWR $G_DGND N00668 IO_STM STIMULUS=S1
U_NE         STIM(1,0) $G_DPWR $G_DGND N00664 IO_STM STIMULUS=NE
U_A         STIM(1,0) $G_DPWR $G_DGND N00774 IO_STM STIMULUS=A
U_B         STIM(1,0) $G_DPWR $G_DGND N00781 IO_STM STIMULUS=B
U_C         STIM(1,0) $G_DPWR $G_DGND N00785 IO_STM STIMULUS=C
U_D         STIM(1,0) $G_DPWR $G_DGND N00797 IO_STM STIMULUS=D
X_U1A         N00664 N00614 $G_DPWR $G_DGND 7404 PARAMS:
+ IO_LEVEL=0 MNTYMXDLY=0
X_U1B         N00668 N00704 $G_DPWR $G_DGND 7404 PARAMS:
+ IO_LEVEL=0 MNTYMXDLY=0
X_U1C         N00722 N00734 $G_DPWR $G_DGND 7404 PARAMS:
+ IO_LEVEL=0 MNTYMXDLY=0
X_U2A         N00614 N00704 N00734 N00774 N00809 $G_DPWR $G_DGND 7420 PARAMS:
+ IO_LEVEL=0 MNTYMXDLY=0
X_U2B         N00614 N00704 N00722 N00781 N00816 $G_DPWR $G_DGND 7420 PARAMS:
+ IO_LEVEL=0 MNTYMXDLY=0
X_U3A         N00614 N00668 N00734 N00785 N00828 $G_DPWR $G_DGND 7420 PARAMS:
+ IO_LEVEL=0 MNTYMXDLY=0
X_U3B         N00614 N00668 N00722 N00797 N00840 $G_DPWR $G_DGND 7420 PARAMS:
+ IO_LEVEL=0 MNTYMXDLY=0
X_U4A         N00809 N00816 N00828 N00840 F $G_DPWR $G_DGND 7420 PARAMS:
+ IO_LEVEL=0 MNTYMXDLY=0

**** RESUMING orcad13week10.cir ****
.END

;!AutoUniverse
;!XminRes 1ns
;!YminRes 1n
;!Ok
.STIMULUS D STIM (1, 1) ;! CLOCKP 1.6u 0.2u 0 1.2u
+   +0s 0
+   +1.2us 1
+   Repeat Forever
+      +200ns 0
+      +1.4us 1
+   EndRepeat
.STIMULUS C STIM (1, 1) ;! CLOCKP 1.6u 0.2u 0 0.8u
+   +0s 0
+   +800ns 1
+   Repeat Forever
+      +200ns 0
+      +1.4us 1
+   EndRepeat
.STIMULUS B STIM (1, 1) ;! CLOCKP 1.6u 0.2u 0 0.4u
+   +0s 0
+   +400ns 1
+   Repeat Forever
+      +200ns 0
+      +1.4us 1
+   EndRepeat
.STIMULUS A STIM (1, 1) ;! CLOCKP 1.6u 0.2u 1 0
+   +0s 1
+   +200ns 0
+   Repeat Forever
+      +1.4us 1
+      +200ns 0
+   EndRepeat
.STIMULUS S1 STIM (1, 1) ;! CLOCKP 1.6u 0.8u 0 0
+   +0s 0
+   +800ns 1
+   Repeat Forever
+      +800ns 0
+      +800ns 1
+   EndRepeat
.STIMULUS S0 STIM (1, 1) ;! CLOCKP 0.8u 0.4u 0 0
+   +0s 0
+   +400ns 1
+   Repeat Forever
+      +400ns 0
+      +400ns 1
+   EndRepeat
.STIMULUS NE STIM (1, 1) ;! CLOCKP 3.2u 1.6u 0 0
+   +0s 0
+   +1.6us 1
+   Repeat Forever
+      +1.6us 0
+      +1.6us 1
+   EndRepeat

**** 06/10/20 16:22:13 ******* PSpice Lite (March 2016) ******* ID# 10813 ****

 ** Profile: "SCHEMATIC1-orcad13week10"  [ C:\Users\OHSEHOON\Desktop\pispice\orcad13week10-PSpiceFiles\SCHEMATIC1\orcad13week10.sim ]


 ****     Digital Gate MODEL PARAMETERS


******************************************************************************




               D_04            D_20            
      TPLHMN    4.800000E-09    4.800000E-09 
      TPLHTY   12.000000E-09   12.000000E-09 
      TPLHMX   22.000000E-09   22.000000E-09 
      TPHLMN    3.200000E-09    3.200000E-09 
      TPHLTY    8.000000E-09    8.000000E-09 
      TPHLMX   15.000000E-09   15.000000E-09 


**** 06/10/20 16:22:13 ******* PSpice Lite (March 2016) ******* ID# 10813 ****

 ** Profile: "SCHEMATIC1-orcad13week10"  [ C:\Users\OHSEHOON\Desktop\pispice\orcad13week10-PSpiceFiles\SCHEMATIC1\orcad13week10.sim ]


 ****     Digital IO  MODEL PARAMETERS


******************************************************************************




               IO_STM          IO_STD          
        DRVL    0             104            
        DRVH    0              96.4          
       AtoD1                 AtoD_STD        
       AtoD2                 AtoD_STD_NX     
       AtoD3                 AtoD_STD        
       AtoD4                 AtoD_STD_NX     
       DtoA1 DtoA_STM        DtoA_STD        
       DtoA2 DtoA_STM        DtoA_STD        
       DtoA3 DtoA_STM        DtoA_STD        
       DtoA4 DtoA_STM        DtoA_STD        
      TSWHL1                    1.511000E-09 
      TSWHL2                    1.487000E-09 
      TSWHL3                    1.511000E-09 
      TSWHL4                    1.487000E-09 
      TSWLH1                    3.517000E-09 
      TSWLH2                    3.564000E-09 
      TSWLH3                    3.517000E-09 
      TSWLH4                    3.564000E-09 
       TPWRT  100.000000E+03  100.000000E+03 



          JOB CONCLUDED

**** 06/10/20 16:22:13 ******* PSpice Lite (March 2016) ******* ID# 10813 ****

 ** Profile: "SCHEMATIC1-orcad13week10"  [ C:\Users\OHSEHOON\Desktop\pispice\orcad13week10-PSpiceFiles\SCHEMATIC1\orcad13week10.sim ]


 ****     JOB STATISTICS SUMMARY


******************************************************************************



  Total job time                    =         .11
