
**** 06/10/20 18:43:49 ******* PSpice Lite (March 2016) ******* ID# 10813 ****

 ** Profile: "SCHEMATIC1-orcad13week12"  [ C:\Users\OHSEHOON\Desktop\pispice\orcad13week13-PSpiceFiles\SCHEMATIC1\orcad13week12.sim ]


 ****     CIRCUIT DESCRIPTION


******************************************************************************




** Creating circuit file "orcad13week12.cir" 
** WARNING: THIS AUTOMATICALLY GENERATED FILE MAY BE OVERWRITTEN BY SUBSEQUENT SIMULATIONS

*Libraries: 
* Profile Libraries :
* Local Libraries :
.STMLIB "../../../orcad13week13-pspicefiles/orcad13week13.stl" 
* From [PSPICE NETLIST] section of C:\Users\OHSEHOON\AppData\Roaming\SPB_Data\cdssetup\OrCAD_PSpice\17.2.0\PSpice.ini file:
.lib "nomd.lib" 

*Analysis directives: 
.TRAN  0 4000ns 0 
.OPTIONS ADVCONV
.PROBE64 V(alias(*)) I(alias(*)) W(alias(*)) D(alias(*)) NOISE(alias(*)) 
.INC "..\SCHEMATIC1.net" 



**** INCLUDING SCHEMATIC1.net ****
* source ORCAD13WEEK13
X_U1A         N02037 N00320 N00275 N03960 N03956 A N02333 $G_DPWR $G_DGND 7476
+  PARAMS:
+ IO_LEVEL=0 MNTYMXDLY=0
U_CLR         STIM(1,0) $G_DPWR $G_DGND N00275 IO_STM STIMULUS=CLR
U_CP         STIM(1,1) $G_DPWR $G_DGND N02037 IO_STM IO_LEVEL=0 
+ 0 0
+ +0.1u 1
+REPEAT FOREVER
+ +0.1u 0
+  +0.1u 1
+ ENDREPEAT
V_V1         N00320 0 5V
X_U1B         N02037 N00320 N00275 A N02333 B N02423 $G_DPWR $G_DGND 7476
+  PARAMS:
+ IO_LEVEL=0 MNTYMXDLY=0
X_U2A         N02037 N00320 N00275 B N02423 C N03827 $G_DPWR $G_DGND 7476
+  PARAMS:
+ IO_LEVEL=0 MNTYMXDLY=0
X_U2B         N02037 N00320 N00275 C N03827 D M_UN0001 $G_DPWR $G_DGND 7476
+  PARAMS:
+ IO_LEVEL=0 MNTYMXDLY=0
X_U3A         N03960 N03956 $G_DPWR $G_DGND 7404 PARAMS:
+ IO_LEVEL=0 MNTYMXDLY=0
U_DSTM2         STIM(4,1111)
+ $G_DPWR $G_DGND
+ M_UN0002 M_UN0003 M_UN0004 M_UN0005 
+ IO_STM
+ IO_LEVEL=0
+  0s 0  
------$
ERROR(ORPSIM-16260): Invalid value
+ 0.2u 1  
+ 0.4u 0  
+ 0.6u 1 
+ 0.8u 1  
+ 1.0u 1  
+ 1.2u 0  
+ 1.4u 1  
----------$
ERROR(ORPSIM-16249): Bad state value(s)

**** RESUMING orcad13week12.cir ****
.END
