
**** 05/26/20 23:36:42 ******* PSpice Lite (March 2016) ******* ID# 10813 ****

 ** Profile: "SCHEMATIC1-orcad11week1_2"  [ C:\Users\OHSEHOON\Desktop\pispice\orcad11week1_2-PSpiceFiles\SCHEMATIC1\orcad11week1_2.si


 ****     CIRCUIT DESCRIPTION


******************************************************************************




** Creating circuit file "orcad11week1_2.cir" 
** WARNING: THIS AUTOMATICALLY GENERATED FILE MAY BE OVERWRITTEN BY SUBSEQUENT SIMULATIONS

*Libraries: 
* Profile Libraries :
* Local Libraries :
* From [PSPICE NETLIST] section of C:\Users\OHSEHOON\AppData\Roaming\SPB_Data\cdssetup\OrCAD_PSpice\17.2.0\PSpice.ini file:
.lib "nomd.lib" 

*Analysis directives: 
.TRAN  0 40m 0 
.OPTIONS ADVCONV
.PROBE64 V(alias(*)) I(alias(*)) W(alias(*)) D(alias(*)) NOISE(alias(*)) 
.INC "..\SCHEMATIC1.net" 



**** INCLUDING SCHEMATIC1.net ****
* source ORCAD11WEEK1_2
R_R1         N00695 N00703  1 TC=0,0 
V_V2         0 N00939  
+SIN 0 12V 60 0 0 0
D_D4         N00927 N00791 Dbreak 
V_V1         N00695 0  
+SIN 0 12 60 0 0 0
D_D3         N00703 N00791 Dbreak 
R_R2         N00939 N00927  1 TC=0,0 
R_R3         0 N00791  1k TC=0,0 

**** RESUMING orcad11week1_2.cir ****
.END

**** 05/26/20 23:36:42 ******* PSpice Lite (March 2016) ******* ID# 10813 ****

 ** Profile: "SCHEMATIC1-orcad11week1_2"  [ C:\Users\OHSEHOON\Desktop\pispice\orcad11week1_2-PSpiceFiles\SCHEMATIC1\orcad11week1_2.si


 ****     Diode MODEL PARAMETERS


******************************************************************************




               Dbreak          
          IS   10.000000E-15 
          RS     .1          
         CJO  100.000000E-15 


**** 05/26/20 23:36:42 ******* PSpice Lite (March 2016) ******* ID# 10813 ****

 ** Profile: "SCHEMATIC1-orcad11week1_2"  [ C:\Users\OHSEHOON\Desktop\pispice\orcad11week1_2-PSpiceFiles\SCHEMATIC1\orcad11week1_2.si


 ****     INITIAL TRANSIENT SOLUTION       TEMPERATURE =   27.000 DEG C


******************************************************************************



 NODE   VOLTAGE     NODE   VOLTAGE     NODE   VOLTAGE     NODE   VOLTAGE


(N00695)    0.0000 (N00703)    0.0000 (N00791)-690.7E-30 (N00927)    0.0000     

(N00939)    0.0000 




    VOLTAGE SOURCE CURRENTS
    NAME         CURRENT

    V_V2         0.000E+00
    V_V1         0.000E+00

    TOTAL POWER DISSIPATION   0.00E+00  WATTS



          JOB CONCLUDED

**** 05/26/20 23:36:42 ******* PSpice Lite (March 2016) ******* ID# 10813 ****

 ** Profile: "SCHEMATIC1-orcad11week1_2"  [ C:\Users\OHSEHOON\Desktop\pispice\orcad11week1_2-PSpiceFiles\SCHEMATIC1\orcad11week1_2.si


 ****     JOB STATISTICS SUMMARY


******************************************************************************



  Total job time (using Solver 1)   =         .06
