
**** 05/20/20 12:05:17 ******* PSpice Lite (March 2016) ******* ID# 10813 ****

 ** Profile: "SCHEMATIC1-orcad10week2"  [ C:\Users\OHSEHOON\Desktop\pispice\orcad10week2-PSpiceFiles\SCHEMATIC1\orcad10week2.sim ] 


 ****     CIRCUIT DESCRIPTION


******************************************************************************




** Creating circuit file "orcad10week2.cir" 
** WARNING: THIS AUTOMATICALLY GENERATED FILE MAY BE OVERWRITTEN BY SUBSEQUENT SIMULATIONS

*Libraries: 
* Profile Libraries :
* Local Libraries :
* From [PSPICE NETLIST] section of C:\Users\OHSEHOON\AppData\Roaming\SPB_Data\cdssetup\OrCAD_PSpice\17.2.0\PSpice.ini file:
.lib "nomd.lib" 

*Analysis directives: 
.TRAN  0 40m 0 
.OPTIONS ADVCONV
.PROBE64 V(alias(*)) I(alias(*)) W(alias(*)) D(alias(*)) NOISE(alias(*)) 
.INC "..\SCHEMATIC1.net" 



**** INCLUDING SCHEMATIC1.net ****
* source ORCAD10WEEK2
V_V1         N00233 0  
+SIN 0 141 60Hz 0 0 0
R_R1         0 N00241  100 TC=0,0 
C_C1         0 N00241  1m  TC=0,0 
D_D1         N00233 N00241 Dbreak 

**** RESUMING orcad10week2.cir ****
.END

**** 05/20/20 12:05:17 ******* PSpice Lite (March 2016) ******* ID# 10813 ****

 ** Profile: "SCHEMATIC1-orcad10week2"  [ C:\Users\OHSEHOON\Desktop\pispice\orcad10week2-PSpiceFiles\SCHEMATIC1\orcad10week2.sim ] 


 ****     Diode MODEL PARAMETERS


******************************************************************************




               Dbreak          
          IS   10.000000E-15 
          RS     .1          
         CJO  100.000000E-15 


**** 05/20/20 12:05:17 ******* PSpice Lite (March 2016) ******* ID# 10813 ****

 ** Profile: "SCHEMATIC1-orcad10week2"  [ C:\Users\OHSEHOON\Desktop\pispice\orcad10week2-PSpiceFiles\SCHEMATIC1\orcad10week2.sim ] 


 ****     INITIAL TRANSIENT SOLUTION       TEMPERATURE =   27.000 DEG C


******************************************************************************



 NODE   VOLTAGE     NODE   VOLTAGE     NODE   VOLTAGE     NODE   VOLTAGE


(N00233)    0.0000 (N00241)-28.69E-30 




    VOLTAGE SOURCE CURRENTS
    NAME         CURRENT

    V_V1         0.000E+00

    TOTAL POWER DISSIPATION   0.00E+00  WATTS



          JOB CONCLUDED

**** 05/20/20 12:05:17 ******* PSpice Lite (March 2016) ******* ID# 10813 ****

 ** Profile: "SCHEMATIC1-orcad10week2"  [ C:\Users\OHSEHOON\Desktop\pispice\orcad10week2-PSpiceFiles\SCHEMATIC1\orcad10week2.sim ] 


 ****     JOB STATISTICS SUMMARY


******************************************************************************



  Total job time (using Solver 1)   =         .06
