
**** 04/20/20 22:11:49 ******* PSpice Lite (March 2016) ******* ID# 10813 ****

 ** Profile: "SCHEMATIC1-orcad6week"  [ C:\Users\OHSEHOON\Desktop\pispice\orcad6week-PSpiceFiles\SCHEMATIC1\orcad6week.sim ] 


 ****     CIRCUIT DESCRIPTION


******************************************************************************




** Creating circuit file "orcad6week.cir" 
** WARNING: THIS AUTOMATICALLY GENERATED FILE MAY BE OVERWRITTEN BY SUBSEQUENT SIMULATIONS

*Libraries: 
* Profile Libraries :
* Local Libraries :
* From [PSPICE NETLIST] section of C:\Users\OHSEHOON\AppData\Roaming\SPB_Data\cdssetup\OrCAD_PSpice\17.2.0\PSpice.ini file:
.lib "nomd.lib" 

*Analysis directives: 
.TRAN  0 5us 0 
.STEP LIN PARAM Cvar 100p 700p 25p 
.OPTIONS ADVCONV
.PROBE64 V(alias(*)) I(alias(*)) W(alias(*)) D(alias(*)) NOISE(alias(*)) 
.INC "..\SCHEMATIC1.net" 



**** INCLUDING SCHEMATIC1.net ****
* source ORCAD6WEEK
R_R1         N00218 N00196  1k TC=0,0 
R_R2         N00231 N00218  1k TC=0,0 
R_R3         0 N00231  1k TC=0,0 
R_R4         N00326 N00231  1k TC=0,0 
R_R5         N00603 N00196  1k TC=0,0 
C_C2         0 N00231  1n  TC=0,0 
V_V1         N00326 0  
+PULSE 0 1 0.1u 0.01u 
V_V2         V+ 0 15V
V_V3         V- 0 -15V
X_U3         N00218 0 V+ V- N00196 LF411
C_C3         0 N00603  [Cvar]  TC=0,0 
-------------------------------$
ERROR(ORPSIM-16152): Invalid number: Error while converting token 'TC' to double value. Token can be a constant or expression
.PARAM  cvar=1n

**** RESUMING orcad6week.cir ****
.END
