
**** 05/26/20 23:46:02 ******* PSpice Lite (March 2016) ******* ID# 10813 ****

 ** Profile: "SCHEMATIC1-orcad11week2"  [ C:\Users\OHSEHOON\Desktop\pispice\orcad11week2-PSpiceFiles\SCHEMATIC1\orcad11week2.sim ] 


 ****     CIRCUIT DESCRIPTION


******************************************************************************




** Creating circuit file "orcad11week2.cir" 
** WARNING: THIS AUTOMATICALLY GENERATED FILE MAY BE OVERWRITTEN BY SUBSEQUENT SIMULATIONS

*Libraries: 
* Profile Libraries :
* Local Libraries :
* From [PSPICE NETLIST] section of C:\Users\OHSEHOON\AppData\Roaming\SPB_Data\cdssetup\OrCAD_PSpice\17.2.0\PSpice.ini file:
.lib "nomd.lib" 

*Analysis directives: 
.TRAN  0 200m 0 
.OPTIONS ADVCONV
.PROBE64 V(alias(*)) I(alias(*)) W(alias(*)) D(alias(*)) NOISE(alias(*)) 
.INC "..\SCHEMATIC1.net" 



**** INCLUDING SCHEMATIC1.net ****
* source ORCAD11WEEK2
V_V1         N00168 0  
+SIN 0 12 60 0 0 0
D_D1         0 N00175 Dbreak 
D_D2         N00175 N00219 Dbreak 
C_C1         N00168 N00175  1m  TC=0,0 
C_C2         0 N00219  1m  TC=0,0 

**** RESUMING orcad11week2.cir ****
.END

**** 05/26/20 23:46:02 ******* PSpice Lite (March 2016) ******* ID# 10813 ****

 ** Profile: "SCHEMATIC1-orcad11week2"  [ C:\Users\OHSEHOON\Desktop\pispice\orcad11week2-PSpiceFiles\SCHEMATIC1\orcad11week2.sim ] 


 ****     Diode MODEL PARAMETERS


******************************************************************************




               Dbreak          
          IS   10.000000E-15 
          RS     .1          
         CJO  100.000000E-15 


**** 05/26/20 23:46:02 ******* PSpice Lite (March 2016) ******* ID# 10813 ****

 ** Profile: "SCHEMATIC1-orcad11week2"  [ C:\Users\OHSEHOON\Desktop\pispice\orcad11week2-PSpiceFiles\SCHEMATIC1\orcad11week2.sim ] 


 ****     INITIAL TRANSIENT SOLUTION       TEMPERATURE =   27.000 DEG C


******************************************************************************



 NODE   VOLTAGE     NODE   VOLTAGE     NODE   VOLTAGE     NODE   VOLTAGE


(N00168)    0.0000 (N00175)-121.8E-18 (N00219)-244.3E-18 




    VOLTAGE SOURCE CURRENTS
    NAME         CURRENT

    V_V1         0.000E+00

    TOTAL POWER DISSIPATION   0.00E+00  WATTS



          JOB CONCLUDED

**** 05/26/20 23:46:02 ******* PSpice Lite (March 2016) ******* ID# 10813 ****

 ** Profile: "SCHEMATIC1-orcad11week2"  [ C:\Users\OHSEHOON\Desktop\pispice\orcad11week2-PSpiceFiles\SCHEMATIC1\orcad11week2.sim ] 


 ****     JOB STATISTICS SUMMARY


******************************************************************************



  Total job time (using Solver 1)   =         .08
