
**** 06/10/20 14:02:38 ******* PSpice Lite (March 2016) ******* ID# 10813 ****

 ** Profile: "SCHEMATIC1-orcad13week5"  [ C:\Users\OHSEHOON\Desktop\pispice\orcad13week5-PSpiceFiles\SCHEMATIC1\orcad13week5.sim ] 


 ****     CIRCUIT DESCRIPTION


******************************************************************************




** Creating circuit file "orcad13week5.cir" 
** WARNING: THIS AUTOMATICALLY GENERATED FILE MAY BE OVERWRITTEN BY SUBSEQUENT SIMULATIONS

*Libraries: 
* Profile Libraries :
* Local Libraries :
.STMLIB "../../../orcad13week5-PSpiceFiles/ORCAD13WEEK5.stl" 
* From [PSPICE NETLIST] section of C:\Users\OHSEHOON\AppData\Roaming\SPB_Data\cdssetup\OrCAD_PSpice\17.2.0\PSpice.ini file:
.lib "nomd.lib" 

*Analysis directives: 
.TRAN  0 1000ns 0 
.OPTIONS ADVCONV
.PROBE64 V(alias(*)) I(alias(*)) W(alias(*)) D(alias(*)) NOISE(alias(*)) 
.INC "..\SCHEMATIC1.net" 



**** INCLUDING SCHEMATIC1.net ****
* source ORCAD13WEEK5
X_U1B         N01999 N02003 N01650 $G_DPWR $G_DGND 7408 PARAMS:
+ IO_LEVEL=0 MNTYMXDLY=0
X_U4B         N01995 N02007 N01742 $G_DPWR $G_DGND 7408 PARAMS:
+ IO_LEVEL=0 MNTYMXDLY=0
U_B1         STIM(1,0) $G_DPWR $G_DGND N02003 IO_STM STIMULUS=B
U_A1         STIM(1,0) $G_DPWR $G_DGND N01995 IO_STM STIMULUS=A
X_U2A         N01650 N01742 F $G_DPWR $G_DGND 7432 PARAMS:
+ IO_LEVEL=0 MNTYMXDLY=0
X_U5A         N01995 N01999 $G_DPWR $G_DGND 7404 PARAMS:
+ IO_LEVEL=0 MNTYMXDLY=0
X_U5B         N02003 N02007 $G_DPWR $G_DGND 7404 PARAMS:
+ IO_LEVEL=0 MNTYMXDLY=0

**** RESUMING orcad13week5.cir ****
.END

* C:\Users\OHSEHOON\Desktop\pispice\orcad13week5-PSpiceFiles\ORCAD13WEEK5.stl written on Wed Jun 10 13:58:08 2020
* by Stimulus Editor -- Lite Version 17.2.0
;!Stimulus Get
;! A Digital B Digital
;!Ok
;!Plot Axis_Settings
;!Xrange 0s 3.2us
;!AutoUniverse
;!XminRes 1ns
;!YminRes 1n
;!Ok
.STIMULUS B STIM (1, 1) ;! CLOCKP 0.8u 0.4u 0 0.2u
+   +0s 0
+   +200ns 1
+   Repeat Forever
+      +400ns 0
+      +400ns 1
+   EndRepeat
.STIMULUS A STIM (1, 1) ;! CLOCKP 0.8u 0.4u 0 0
+   +0s 0
+   +400ns 1
+   Repeat Forever
+      +400ns 0
+      +400ns 1
+   EndRepeat

**** 06/10/20 14:02:38 ******* PSpice Lite (March 2016) ******* ID# 10813 ****

 ** Profile: "SCHEMATIC1-orcad13week5"  [ C:\Users\OHSEHOON\Desktop\pispice\orcad13week5-PSpiceFiles\SCHEMATIC1\orcad13week5.sim ] 


 ****     Digital Gate MODEL PARAMETERS


******************************************************************************




               D_08            D_32            D_04            
      TPLHMN    7.000000E-09    4.000000E-09    4.800000E-09 
      TPLHTY   17.500000E-09   10.000000E-09   12.000000E-09 
      TPLHMX   27.000000E-09   15.000000E-09   22.000000E-09 
      TPHLMN    4.800000E-09    5.600000E-09    3.200000E-09 
      TPHLTY   12.000000E-09   14.000000E-09    8.000000E-09 
      TPHLMX   19.000000E-09   22.000000E-09   15.000000E-09 


**** 06/10/20 14:02:38 ******* PSpice Lite (March 2016) ******* ID# 10813 ****

 ** Profile: "SCHEMATIC1-orcad13week5"  [ C:\Users\OHSEHOON\Desktop\pispice\orcad13week5-PSpiceFiles\SCHEMATIC1\orcad13week5.sim ] 


 ****     Digital IO  MODEL PARAMETERS


******************************************************************************




               IO_STM          IO_STD          
        DRVL    0             104            
        DRVH    0              96.4          
       AtoD1                 AtoD_STD        
       AtoD2                 AtoD_STD_NX     
       AtoD3                 AtoD_STD        
       AtoD4                 AtoD_STD_NX     
       DtoA1 DtoA_STM        DtoA_STD        
       DtoA2 DtoA_STM        DtoA_STD        
       DtoA3 DtoA_STM        DtoA_STD        
       DtoA4 DtoA_STM        DtoA_STD        
      TSWHL1                    1.511000E-09 
      TSWHL2                    1.487000E-09 
      TSWHL3                    1.511000E-09 
      TSWHL4                    1.487000E-09 
      TSWLH1                    3.517000E-09 
      TSWLH2                    3.564000E-09 
      TSWLH3                    3.517000E-09 
      TSWLH4                    3.564000E-09 
       TPWRT  100.000000E+03  100.000000E+03 



          JOB CONCLUDED

**** 06/10/20 14:02:38 ******* PSpice Lite (March 2016) ******* ID# 10813 ****

 ** Profile: "SCHEMATIC1-orcad13week5"  [ C:\Users\OHSEHOON\Desktop\pispice\orcad13week5-PSpiceFiles\SCHEMATIC1\orcad13week5.sim ] 


 ****     JOB STATISTICS SUMMARY


******************************************************************************



  Total job time                    =         .08
