
**** 05/04/20 22:44:46 ******* PSpice Lite (March 2016) ******* ID# 10813 ****

 ** Profile: "SCHEMATIC1-orcad8week3"  [ C:\Users\OHSEHOON\Desktop\pispice\orcad8week3-PSpiceFiles\SCHEMATIC1\orcad8week3.sim ] 


 ****     CIRCUIT DESCRIPTION


******************************************************************************




** Creating circuit file "orcad8week3.cir" 
** WARNING: THIS AUTOMATICALLY GENERATED FILE MAY BE OVERWRITTEN BY SUBSEQUENT SIMULATIONS

*Libraries: 
* Profile Libraries :
* Local Libraries :
* From [PSPICE NETLIST] section of C:\Users\OHSEHOON\AppData\Roaming\SPB_Data\cdssetup\OrCAD_PSpice\17.2.0\PSpice.ini file:
.lib "nomd.lib" 

*Analysis directives: 
.TRAN  0 2m 0 
.STEP PARAM cval LIST 0.001u, 0.01u, 0.1u 
.OPTIONS ADVCONV
.PROBE64 V(alias(*)) I(alias(*)) W(alias(*)) D(alias(*)) NOISE(alias(*)) 
.INC "..\SCHEMATIC1.net" 



**** INCLUDING SCHEMATIC1.net ****
* source ORCAD8WEEK3
V_V1         N00197 0  
+PULSE 0 1 0.5m 0.1n 0.1n 1m 2m
C_C1         N00197 N00157  0.01u  TC=0,0 
C_C2         0 N00157  {cval}  TC=0,0 
R_R1         0 N00157  10mega TC=0,0 
.PARAM  cval=0.01uf

**** RESUMING orcad8week3.cir ****
.END

**** 05/04/20 22:44:46 ******* PSpice Lite (March 2016) ******* ID# 10813 ****

 ** Profile: "SCHEMATIC1-orcad8week3"  [ C:\Users\OHSEHOON\Desktop\pispice\orcad8week3-PSpiceFiles\SCHEMATIC1\orcad8week3.sim ] 


 ****     INITIAL TRANSIENT SOLUTION       TEMPERATURE =   27.000 DEG C

 ****     CURRENT STEP                     PARAM CVAL =    1.0000E-09


******************************************************************************



 NODE   VOLTAGE     NODE   VOLTAGE     NODE   VOLTAGE     NODE   VOLTAGE


(N00157)    0.0000 (N00197)    0.0000 




    VOLTAGE SOURCE CURRENTS
    NAME         CURRENT

    V_V1         0.000E+00

    TOTAL POWER DISSIPATION   0.00E+00  WATTS


**** 05/04/20 22:44:46 ******* PSpice Lite (March 2016) ******* ID# 10813 ****

 ** Profile: "SCHEMATIC1-orcad8week3"  [ C:\Users\OHSEHOON\Desktop\pispice\orcad8week3-PSpiceFiles\SCHEMATIC1\orcad8week3.sim ] 


 ****     INITIAL TRANSIENT SOLUTION       TEMPERATURE =   27.000 DEG C

 ****     CURRENT STEP                     PARAM CVAL =   10.0000E-09


******************************************************************************



 NODE   VOLTAGE     NODE   VOLTAGE     NODE   VOLTAGE     NODE   VOLTAGE


(N00157)    0.0000 (N00197)    0.0000 




    VOLTAGE SOURCE CURRENTS
    NAME         CURRENT

    V_V1         0.000E+00

    TOTAL POWER DISSIPATION   0.00E+00  WATTS


**** 05/04/20 22:44:46 ******* PSpice Lite (March 2016) ******* ID# 10813 ****

 ** Profile: "SCHEMATIC1-orcad8week3"  [ C:\Users\OHSEHOON\Desktop\pispice\orcad8week3-PSpiceFiles\SCHEMATIC1\orcad8week3.sim ] 


 ****     INITIAL TRANSIENT SOLUTION       TEMPERATURE =   27.000 DEG C

 ****     CURRENT STEP                     PARAM CVAL =  100.0000E-09


******************************************************************************



 NODE   VOLTAGE     NODE   VOLTAGE     NODE   VOLTAGE     NODE   VOLTAGE


(N00157)    0.0000 (N00197)    0.0000 




    VOLTAGE SOURCE CURRENTS
    NAME         CURRENT

    V_V1         0.000E+00

    TOTAL POWER DISSIPATION   0.00E+00  WATTS



          JOB CONCLUDED

**** 05/04/20 22:44:46 ******* PSpice Lite (March 2016) ******* ID# 10813 ****

 ** Profile: "SCHEMATIC1-orcad8week3"  [ C:\Users\OHSEHOON\Desktop\pispice\orcad8week3-PSpiceFiles\SCHEMATIC1\orcad8week3.sim ] 


 ****     JOB STATISTICS SUMMARY

 ****     CURRENT STEP                     PARAM CVAL =  100.0000E-09


******************************************************************************



  Total job time (using Solver 1)   =         .03
