
**** 04/20/20 22:56:58 ******* PSpice Lite (March 2016) ******* ID# 10813 ****

 ** Profile: "SCHEMATIC1-orcad6week2"  [ C:\Users\OHSEHOON\Desktop\pispice\orcad6week2-PSpiceFiles\SCHEMATIC1\orcad6week2.sim ] 


 ****     CIRCUIT DESCRIPTION


******************************************************************************




** Creating circuit file "orcad6week2.cir" 
** WARNING: THIS AUTOMATICALLY GENERATED FILE MAY BE OVERWRITTEN BY SUBSEQUENT SIMULATIONS

*Libraries: 
* Profile Libraries :
* Local Libraries :
* From [PSPICE NETLIST] section of C:\Users\OHSEHOON\AppData\Roaming\SPB_Data\cdssetup\OrCAD_PSpice\17.2.0\PSpice.ini file:
.lib "nomd.lib" 

*Analysis directives: 
.AC LIN 101 10 1k
.OPTIONS ADVCONV
.PROBE64 V(alias(*)) I(alias(*)) W(alias(*)) D(alias(*)) NOISE(alias(*)) 
.INC "..\SCHEMATIC1.net" 



**** INCLUDING SCHEMATIC1.net ****
* source ORCAD6WEEK2
V_V1         N00152 N00140  AC 100V 
R_R1         N00152 N00120  200 TC=0,0 
R_R2         N00140 N00120  400 TC=0,0 
C_C1         N00140 N00120  10u  TC=0,0 

**** RESUMING orcad6week2.cir ****
.END

ERROR(ORPSIM-15142): Node N00152 is floating

ERROR(ORPSIM-15142): Node N00140 is floating

ERROR(ORPSIM-15142): Node N00120 is floating
