
**** 05/04/20 22:50:44 ******* PSpice Lite (March 2016) ******* ID# 10813 ****

 ** Profile: "SCHEMATIC1-orcad8week4"  [ C:\Users\OHSEHOON\Desktop\pispice\orcad8week4-PSpiceFiles\SCHEMATIC1\orcad8week4.sim ] 


 ****     CIRCUIT DESCRIPTION


******************************************************************************




** Creating circuit file "orcad8week4.cir" 
** WARNING: THIS AUTOMATICALLY GENERATED FILE MAY BE OVERWRITTEN BY SUBSEQUENT SIMULATIONS

*Libraries: 
* Profile Libraries :
* Local Libraries :
* From [PSPICE NETLIST] section of C:\Users\OHSEHOON\AppData\Roaming\SPB_Data\cdssetup\OrCAD_PSpice\17.2.0\PSpice.ini file:
.lib "nomd.lib" 

*Analysis directives: 
.TRAN  0 1000ns 0 
.STEP PARAM cval LIST 0.001u, 0.01u, 0.1u 
.OPTIONS ADVCONV
.PROBE64 V(alias(*)) I(alias(*)) W(alias(*)) D(alias(*)) NOISE(alias(*)) 
.INC "..\SCHEMATIC1.net" 



**** INCLUDING SCHEMATIC1.net ****
* source ORCAD8WEEK4
V_V1         N00199 N00175  
+PULSE 0 1 0.5m 0.1n 0.1n 1m 2m
R_R1         N00199 N00159  1k TC=0,0 
C_C1         N00175 N00159  {cval}  TC=0,0 
R_R2         N00175 N00159  10mega TC=0,0 
.PARAM  cval=0.01u

**** RESUMING orcad8week4.cir ****
.END

ERROR(ORPSIM-15142): Node N00199 is floating

ERROR(ORPSIM-15142): Node N00175 is floating

ERROR(ORPSIM-15142): Node N00159 is floating
