
**** 05/04/20 22:26:33 ******* PSpice Lite (March 2016) ******* ID# 10813 ****

 ** Profile: "SCHEMATIC1-orcad8week1"  [ C:\Users\OHSEHOON\Desktop\pispice\orcad8week1-PSpiceFiles\SCHEMATIC1\orcad8week1.sim ] 


 ****     CIRCUIT DESCRIPTION


******************************************************************************




** Creating circuit file "orcad8week1.cir" 
** WARNING: THIS AUTOMATICALLY GENERATED FILE MAY BE OVERWRITTEN BY SUBSEQUENT SIMULATIONS

*Libraries: 
* Profile Libraries :
* Local Libraries :
* From [PSPICE NETLIST] section of C:\Users\OHSEHOON\AppData\Roaming\SPB_Data\cdssetup\OrCAD_PSpice\17.2.0\PSpice.ini file:
.lib "nomd.lib" 

*Analysis directives: 
.TRAN  0 5m 0 
.OPTIONS ADVCONV
.PROBE64 V(alias(*)) I(alias(*)) W(alias(*)) D(alias(*)) NOISE(alias(*)) 
.INC "..\SCHEMATIC1.net" 



**** INCLUDING SCHEMATIC1.net ****
* source ORCAD8WEEK1
V_V1         N00185 0  
+PULSE 0 1 1m 0.1n 0.1n 3ms 5ms
R_R1         N00185 0  1 TC=0,0 
R_R2         N00185 N00202  1 TC=0,0 
R_R3         N00185 N00198  1 TC=0,0 
L_L1         N00202 0  220uH  
C_C1         N00198 0  220u  TC=0,0 

**** RESUMING orcad8week1.cir ****
.END

**** 05/04/20 22:26:33 ******* PSpice Lite (March 2016) ******* ID# 10813 ****

 ** Profile: "SCHEMATIC1-orcad8week1"  [ C:\Users\OHSEHOON\Desktop\pispice\orcad8week1-PSpiceFiles\SCHEMATIC1\orcad8week1.sim ] 


 ****     INITIAL TRANSIENT SOLUTION       TEMPERATURE =   27.000 DEG C


******************************************************************************



 NODE   VOLTAGE     NODE   VOLTAGE     NODE   VOLTAGE     NODE   VOLTAGE


(N00185)    0.0000 (N00198)    0.0000 (N00202)    0.0000 




    VOLTAGE SOURCE CURRENTS
    NAME         CURRENT

    V_V1         0.000E+00

    TOTAL POWER DISSIPATION   0.00E+00  WATTS



          JOB CONCLUDED

**** 05/04/20 22:26:33 ******* PSpice Lite (March 2016) ******* ID# 10813 ****

 ** Profile: "SCHEMATIC1-orcad8week1"  [ C:\Users\OHSEHOON\Desktop\pispice\orcad8week1-PSpiceFiles\SCHEMATIC1\orcad8week1.sim ] 


 ****     JOB STATISTICS SUMMARY


******************************************************************************



  Total job time (using Solver 1)   =         .05
