
**** 06/10/20 17:06:41 ******* PSpice Lite (March 2016) ******* ID# 10813 ****

 ** Profile: "SCHEMATIC1-orcad13week11"  [ C:\Users\OHSEHOON\Desktop\pispice\orcad13week11-PSpiceFiles\SCHEMATIC1\orcad13week11.sim ]


 ****     CIRCUIT DESCRIPTION


******************************************************************************




** Creating circuit file "orcad13week11.cir" 
** WARNING: THIS AUTOMATICALLY GENERATED FILE MAY BE OVERWRITTEN BY SUBSEQUENT SIMULATIONS

*Libraries: 
* Profile Libraries :
.INC "C:\Users\OHSEHOON\Desktop\pispice\orcad13week11-PSpiceFiles\SCHEMATIC1\orcad13week11\orcad13week11_profile.inc" 
* Local Libraries :

**** INCLUDING orcad13week11_profile.inc ****
.STMLIB ".\orcad13week11.stl" 

**** RESUMING orcad13week11.cir ****
.STMLIB "../../../orcad13week11-pspicefiles/orcad13week11.stl" 
* From [PSPICE NETLIST] section of C:\Users\OHSEHOON\AppData\Roaming\SPB_Data\cdssetup\OrCAD_PSpice\17.2.0\PSpice.ini file:
.lib "nomd.lib" 

*Analysis directives: 
.TRAN  0 1000ns 0 
.OPTIONS ADVCONV
.PROBE64 V(alias(*)) I(alias(*)) W(alias(*)) D(alias(*)) NOISE(alias(*)) 
.INC "..\SCHEMATIC1.net" 



**** INCLUDING SCHEMATIC1.net ****
* source ORCAD13WEEK11
U_D         STIM(1,0) $G_DPWR $G_DGND N00463 IO_STM STIMULUS=D
X_U1A         N00463 N00467 N00403 $G_DPWR $G_DGND 7400 PARAMS:
+ IO_LEVEL=0 MNTYMXDLY=0
X_U1B         N00467 N02473 N00410 $G_DPWR $G_DGND 7400 PARAMS:
+ IO_LEVEL=0 MNTYMXDLY=0
X_U1C         N00403 -Q Q $G_DPWR $G_DGND 7400 PARAMS:
+ IO_LEVEL=0 MNTYMXDLY=0
X_U1D         Q N00410 -Q $G_DPWR $G_DGND 7400 PARAMS:
+ IO_LEVEL=0 MNTYMXDLY=0
U_CP         STIM(1,1) $G_DPWR $G_DGND N00467 IO_STM IO_LEVEL=0 
+ 0 1
+ +0.1u 0
+REPEAT FOREVER
+ +0.1u 1
+  +0.1u 0
+ ENDREPEAT
X_U2A         N00463 N02473 $G_DPWR $G_DGND 7404 PARAMS:
+ IO_LEVEL=0 MNTYMXDLY=0

**** RESUMING orcad13week11.cir ****
.END

* C:\Users\OHSEHOON\Desktop\pispice\orcad13week11-PSpiceFiles\SCHEMATIC1\orcad13week11\orcad13week11.stl written on Wed Jun 10 16:51:37 2020
* by Stimulus Editor -- Lite Version 17.2.0
;!Stimulus Get
;! HI Digital
;!Ok
;!Plot Axis_Settings
;!Xrange 0s 4s
;!AutoUniverse
;!XminRes 1ns
;!YminRes 1n
;!Ok
.STIMULUS HI STIM (1, 1) ;! CLOCKP 1 0.5 1 0
+   +0s 1
+   +500ms 0
+   Repeat Forever
+      +500ms 1
+      +500ms 0
+   EndRepeat
* C:\USERS\OHSEHOON\DESKTOP\PISPICE\orcad13week11-pspicefiles\orcad13week11.stl written on Wed Jun 10 17:06:33 2020
* by Stimulus Editor -- Lite Version 17.2.0
;!Stimulus Get
;! S Digital R Digital SLR Digital D Digital PRE Digital
;!Ok
;!Plot Axis_Settings
;!Xrange 0s 4us
;!AutoUniverse
;!XminRes 1ns
;!YminRes 1n
;!Ok
.STIMULUS R STIM (1, 1) ;! CLOCKP 0.4u 0.2u 1 0
+   +0s 1
+   +200ns 0
+   Repeat Forever
+      +200ns 1
+      +200ns 0
+   EndRepeat
.STIMULUS S STIM (1, 1) ;! CLOCKP 0.8u 0.2u 1 0
+   +0s 1
+   +200ns 0
+   Repeat Forever
+      +600ns 1
+      +200ns 0
+   EndRepeat
.STIMULUS SLR STIM (1, 1) ;! CLOCKP 1u 0.9u 0 0
+   +0s 0
+   +100ns 1
+   Repeat Forever
+      +900ns 0
+      +100ns 1
+   EndRepeat
.STIMULUS D STIM (1, 1) ;! CLOCKP 0.6u 0.4u 0 0.2u
+   +0s 0
+   +200ns 1
+   Repeat Forever
+      +400ns 0
+      +200ns 1
+   EndRepeat
.STIMULUS PRE STIM (1, 1) ;! CLOCKP 0.2u 0.1u 1 0
+   +0s 1
+   +100ns 0
+   Repeat Forever
+      +100ns 1
+      +100ns 0
+   EndRepeat

**** 06/10/20 17:06:41 ******* PSpice Lite (March 2016) ******* ID# 10813 ****

 ** Profile: "SCHEMATIC1-orcad13week11"  [ C:\Users\OHSEHOON\Desktop\pispice\orcad13week11-PSpiceFiles\SCHEMATIC1\orcad13week11.sim ]


 ****     Digital Gate MODEL PARAMETERS


******************************************************************************




               D_00            D_04            
      TPLHMN    4.400000E-09    4.800000E-09 
      TPLHTY   11.000000E-09   12.000000E-09 
      TPLHMX   22.000000E-09   22.000000E-09 
      TPHLMN    2.800000E-09    3.200000E-09 
      TPHLTY    7.000000E-09    8.000000E-09 
      TPHLMX   15.000000E-09   15.000000E-09 


**** 06/10/20 17:06:41 ******* PSpice Lite (March 2016) ******* ID# 10813 ****

 ** Profile: "SCHEMATIC1-orcad13week11"  [ C:\Users\OHSEHOON\Desktop\pispice\orcad13week11-PSpiceFiles\SCHEMATIC1\orcad13week11.sim ]


 ****     Digital IO  MODEL PARAMETERS


******************************************************************************




               IO_STM          IO_STD          
        DRVL    0             104            
        DRVH    0              96.4          
       AtoD1                 AtoD_STD        
       AtoD2                 AtoD_STD_NX     
       AtoD3                 AtoD_STD        
       AtoD4                 AtoD_STD_NX     
       DtoA1 DtoA_STM        DtoA_STD        
       DtoA2 DtoA_STM        DtoA_STD        
       DtoA3 DtoA_STM        DtoA_STD        
       DtoA4 DtoA_STM        DtoA_STD        
      TSWHL1                    1.511000E-09 
      TSWHL2                    1.487000E-09 
      TSWHL3                    1.511000E-09 
      TSWHL4                    1.487000E-09 
      TSWLH1                    3.517000E-09 
      TSWLH2                    3.564000E-09 
      TSWLH3                    3.517000E-09 
      TSWLH4                    3.564000E-09 
       TPWRT  100.000000E+03  100.000000E+03 



          JOB CONCLUDED

**** 06/10/20 17:06:41 ******* PSpice Lite (March 2016) ******* ID# 10813 ****

 ** Profile: "SCHEMATIC1-orcad13week11"  [ C:\Users\OHSEHOON\Desktop\pispice\orcad13week11-PSpiceFiles\SCHEMATIC1\orcad13week11.sim ]


 ****     JOB STATISTICS SUMMARY


******************************************************************************



  Total job time                    =         .11
