
**** 06/16/20 14:17:51 ******* PSpice Lite (March 2016) ******* ID# 10813 ****

 ** Profile: "SCHEMATIC1-orcad14week10"  [ C:\Users\OHSEHOON\Desktop\pispice\orcad14week10-PSpiceFiles\SCHEMATIC1\orcad14week10.sim ]


 ****     CIRCUIT DESCRIPTION


******************************************************************************




** Creating circuit file "orcad14week10.cir" 
** WARNING: THIS AUTOMATICALLY GENERATED FILE MAY BE OVERWRITTEN BY SUBSEQUENT SIMULATIONS

*Libraries: 
* Profile Libraries :
* Local Libraries :
* From [PSPICE NETLIST] section of C:\Users\OHSEHOON\AppData\Roaming\SPB_Data\cdssetup\OrCAD_PSpice\17.2.0\PSpice.ini file:
.lib "nomd.lib" 

*Analysis directives: 
.TRAN  0 100m 0 
.OPTIONS ADVCONV
.PROBE64 V(alias(*)) I(alias(*)) W(alias(*)) D(alias(*)) NOISE(alias(*)) 
.INC "..\SCHEMATIC1.net" 



**** INCLUDING SCHEMATIC1.net ****
* source ORCAD14WEEK10
D_D1         N00251 N00266 D1N4148 
D_D2         N00303 N00266 D1N4148 
D_D3         0 N00251 D1N4148 
D_D4         0 N00303 D1N4148 
C_C1         N00172 N00266  680u  TC=0,0 
C_C2         0 N00172  680u  TC=0,0 
R_R1         N00172 N00266  1k TC=0,0 
R_R2         0 N00172  1k TC=0,0 
V_V1         N00251 N00303  
+SIN 0 110 60 0 0 0

**** RESUMING orcad14week10.cir ****
.END

**** 06/16/20 14:17:51 ******* PSpice Lite (March 2016) ******* ID# 10813 ****

 ** Profile: "SCHEMATIC1-orcad14week10"  [ C:\Users\OHSEHOON\Desktop\pispice\orcad14week10-PSpiceFiles\SCHEMATIC1\orcad14week10.sim ]


 ****     Diode MODEL PARAMETERS


******************************************************************************




               D1N4148         
          IS    2.682000E-09 
           N    1.836        
         ISR    1.565000E-09 
         IKF     .04417      
          BV  100            
         IBV  100.000000E-06 
          RS     .5664       
          TT   11.540000E-09 
         CJO    4.000000E-12 
          VJ     .5          
           M     .3333       


**** 06/16/20 14:17:51 ******* PSpice Lite (March 2016) ******* ID# 10813 ****

 ** Profile: "SCHEMATIC1-orcad14week10"  [ C:\Users\OHSEHOON\Desktop\pispice\orcad14week10-PSpiceFiles\SCHEMATIC1\orcad14week10.sim ]


 ****     INITIAL TRANSIENT SOLUTION       TEMPERATURE =   27.000 DEG C


******************************************************************************



 NODE   VOLTAGE     NODE   VOLTAGE     NODE   VOLTAGE     NODE   VOLTAGE


(N00172)-726.7E-18 (N00251)-724.2E-18 (N00266)-1.453E-15 (N00303)-724.2E-18 




    VOLTAGE SOURCE CURRENTS
    NAME         CURRENT

    V_V1         0.000E+00

    TOTAL POWER DISSIPATION   0.00E+00  WATTS



          JOB CONCLUDED

**** 06/16/20 14:17:51 ******* PSpice Lite (March 2016) ******* ID# 10813 ****

 ** Profile: "SCHEMATIC1-orcad14week10"  [ C:\Users\OHSEHOON\Desktop\pispice\orcad14week10-PSpiceFiles\SCHEMATIC1\orcad14week10.sim ]


 ****     JOB STATISTICS SUMMARY


******************************************************************************



  License check-out time            =         .91
  Total job time (using Solver 1)   =         .24
