
**** 04/29/20 11:52:24 ******* PSpice Lite (March 2016) ******* ID# 10813 ****

 ** Profile: "SCHEMATIC1-orcad7week3"  [ C:\Users\OHSEHOON\Desktop\pispice\orcad7week3-PSpiceFiles\SCHEMATIC1\orcad7week3.sim ] 


 ****     CIRCUIT DESCRIPTION


******************************************************************************




** Creating circuit file "orcad7week3.cir" 
** WARNING: THIS AUTOMATICALLY GENERATED FILE MAY BE OVERWRITTEN BY SUBSEQUENT SIMULATIONS

*Libraries: 
* Profile Libraries :
* Local Libraries :
* From [PSPICE NETLIST] section of C:\Users\OHSEHOON\AppData\Roaming\SPB_Data\cdssetup\OrCAD_PSpice\17.2.0\PSpice.ini file:
.lib "nomd.lib" 

*Analysis directives: 
.DC LIN PARAM rval 0.1 10k 0.1k 
.OPTIONS ADVCONV
.PROBE64 V(alias(*)) I(alias(*)) W(alias(*)) D(alias(*)) NOISE(alias(*)) 
.INC "..\SCHEMATIC1.net" 



**** INCLUDING SCHEMATIC1.net ****
* source ORCAD7WEEK3
V_V1         N00083 0 1
R_R1         N00083 N00087  1k TC=0,0 
R_R2         0 N00087  {rval} TC=0,0 
.PARAM  rval=1k

**** RESUMING orcad7week3.cir ****
.END


          JOB CONCLUDED

**** 04/29/20 11:52:24 ******* PSpice Lite (March 2016) ******* ID# 10813 ****

 ** Profile: "SCHEMATIC1-orcad7week3"  [ C:\Users\OHSEHOON\Desktop\pispice\orcad7week3-PSpiceFiles\SCHEMATIC1\orcad7week3.sim ] 


 ****     JOB STATISTICS SUMMARY


******************************************************************************



  Total job time (using Solver 1)   =         .02
