
**** 06/16/20 12:16:10 ******* PSpice Lite (March 2016) ******* ID# 10813 ****

 ** Profile: "SCHEMATIC1-orcad14week5"  [ C:\Users\OHSEHOON\Desktop\pispice\orcad14week5-PSpiceFiles\SCHEMATIC1\orcad14week5.sim ] 


 ****     CIRCUIT DESCRIPTION


******************************************************************************




** Creating circuit file "orcad14week5.cir" 
** WARNING: THIS AUTOMATICALLY GENERATED FILE MAY BE OVERWRITTEN BY SUBSEQUENT SIMULATIONS

*Libraries: 
* Profile Libraries :
* Local Libraries :
* From [PSPICE NETLIST] section of C:\Users\OHSEHOON\AppData\Roaming\SPB_Data\cdssetup\OrCAD_PSpice\17.2.0\PSpice.ini file:
.lib "nomd.lib" 

*Analysis directives: 
.DC LIN V_V2 0 5 0.1 
.STEP LIN I_I2 0 200u 40u 
.OPTIONS ADVCONV
.PROBE64 V(alias(*)) I(alias(*)) W(alias(*)) D(alias(*)) NOISE(alias(*)) 
.INC "..\SCHEMATIC1.net" 



**** INCLUDING SCHEMATIC1.net ****
* source ORCAD14WEEK5
Q_Q2         N00426 N00437 0 Q2N2907A
I_I2         N00437 0 DC 0Adc  
V_V2         0 N00426 0Vdc

**** RESUMING orcad14week5.cir ****
.END

**** 06/16/20 12:16:10 ******* PSpice Lite (March 2016) ******* ID# 10813 ****

 ** Profile: "SCHEMATIC1-orcad14week5"  [ C:\Users\OHSEHOON\Desktop\pispice\orcad14week5-PSpiceFiles\SCHEMATIC1\orcad14week5.sim ] 


 ****     BJT MODEL PARAMETERS


******************************************************************************




               Q2N2907A        
               PNP             
       LEVEL    1            
          IS  650.600000E-18 
          BF  231.7          
          NF    1            
         VAF  115.7          
         IKF    1.079        
         ISE   54.810000E-15 
          NE    1.829        
          BR    3.563        
          NR    1            
         ISS    0            
          RB   10            
          RE    0            
          RC     .715        
         CJE   19.820000E-12 
         VJE     .75         
         MJE     .3357       
         CJC   14.760000E-12 
         VJC     .75         
         MJC     .5383       
        XCJC    1            
         CJS    0            
         VJS     .75         
          TF  603.700000E-12 
         XTF    1.7          
         VTF    5            
         ITF     .65         
          TR  111.300000E-09 
         XTB    1.5          
          KF    0            
          AF    1            
          CN    2.2          
           D     .52         



          JOB CONCLUDED

**** 06/16/20 12:16:10 ******* PSpice Lite (March 2016) ******* ID# 10813 ****

 ** Profile: "SCHEMATIC1-orcad14week5"  [ C:\Users\OHSEHOON\Desktop\pispice\orcad14week5-PSpiceFiles\SCHEMATIC1\orcad14week5.sim ] 


 ****     JOB STATISTICS SUMMARY

 ****     CURRENT STEP                     I_I2 =  200.0000E-06


******************************************************************************



  Total job time (using Solver 1)   =         .11
