
**** 05/20/20 12:17:53 ******* PSpice Lite (March 2016) ******* ID# 10813 ****

 ** Profile: "SCHEMATIC1-orcad10week3"  [ C:\Users\OHSEHOON\Desktop\pispice\orcad10week3-PSpiceFiles\SCHEMATIC1\orcad10week3.sim ] 


 ****     CIRCUIT DESCRIPTION


******************************************************************************




** Creating circuit file "orcad10week3.cir" 
** WARNING: THIS AUTOMATICALLY GENERATED FILE MAY BE OVERWRITTEN BY SUBSEQUENT SIMULATIONS

*Libraries: 
* Profile Libraries :
* Local Libraries :
* From [PSPICE NETLIST] section of C:\Users\OHSEHOON\AppData\Roaming\SPB_Data\cdssetup\OrCAD_PSpice\17.2.0\PSpice.ini file:
.lib "nomd.lib" 

*Analysis directives: 
.DC LIN V_V1 -1 1 0.01 
.OPTIONS ADVCONV
.PROBE64 V(alias(*)) I(alias(*)) W(alias(*)) D(alias(*)) NOISE(alias(*)) 
.INC "..\SCHEMATIC1.net" 



**** INCLUDING SCHEMATIC1.net ****
* source ORCAD10WEEK3
V_V1         N00115 0 0Vdc
R_R1         N00108 N00115  10 TC=0,0 
D_D1         N00108 0 D1N4148 

**** RESUMING orcad10week3.cir ****
.END

**** 05/20/20 12:17:53 ******* PSpice Lite (March 2016) ******* ID# 10813 ****

 ** Profile: "SCHEMATIC1-orcad10week3"  [ C:\Users\OHSEHOON\Desktop\pispice\orcad10week3-PSpiceFiles\SCHEMATIC1\orcad10week3.sim ] 


 ****     Diode MODEL PARAMETERS


******************************************************************************




               D1N4148         
          IS    2.682000E-09 
           N    1.836        
         ISR    1.565000E-09 
         IKF     .04417      
          BV  100            
         IBV  100.000000E-06 
          RS     .5664       
          TT   11.540000E-09 
         CJO    4.000000E-12 
          VJ     .5          
           M     .3333       



          JOB CONCLUDED

**** 05/20/20 12:17:53 ******* PSpice Lite (March 2016) ******* ID# 10813 ****

 ** Profile: "SCHEMATIC1-orcad10week3"  [ C:\Users\OHSEHOON\Desktop\pispice\orcad10week3-PSpiceFiles\SCHEMATIC1\orcad10week3.sim ] 


 ****     JOB STATISTICS SUMMARY


******************************************************************************



  Total job time (using Solver 1)   =         .08
