
**** 09/25/19 21:14:11 ******* PSpice Lite (March 2016) ******* ID# 10813 ****

 ** Profile: "SCHEMATIC1-test_11"  [ C:\Users\OHSEHOON\Desktop\test_11-PSpiceFiles\SCHEMATIC1\test_11.sim ] 


 ****     CIRCUIT DESCRIPTION


******************************************************************************




** Creating circuit file "test_11.cir" 
** WARNING: THIS AUTOMATICALLY GENERATED FILE MAY BE OVERWRITTEN BY SUBSEQUENT SIMULATIONS

*Libraries: 
* Profile Libraries :
* Local Libraries :
* From [PSPICE NETLIST] section of C:\Users\OHSEHOON\AppData\Roaming\SPB_Data\cdssetup\OrCAD_PSpice\17.2.0\PSpice.ini file:
.lib "nomd.lib" 

*Analysis directives: 
.TRAN  0 1 0 
.OPTIONS ADVCONV
.PROBE64 V(alias(*)) I(alias(*)) W(alias(*)) D(alias(*)) NOISE(alias(*)) 
.INC "..\SCHEMATIC1.net" 



**** INCLUDING SCHEMATIC1.net ****
* source TEST_11
V_V1         N00297 0 10Vdc
R_R4         N00297 N00328  4 TC=0,0 
R_R2         0 N00328  6 TC=0,0 
R_R1         0 N00324  4 TC=0,0 
R_R3         N00324 N00297  6 TC=0,0 
R_R5         N00328 N00324  0.0000000000000001 TC=0,0 

**** RESUMING test_11.cir ****
.END

Starting pseudo-transient algorithm.

ERROR -- Convergence problem in transient bias point calculation


  Last node voltages tried were:

 NODE   VOLTAGE     NODE   VOLTAGE     NODE   VOLTAGE     NODE   VOLTAGE


(N00297)    0.0000 (N00324)    0.0000 (N00328)    0.0000 


**** Interrupt ****
