
**** 06/24/20 10:35:58 ******* PSpice Lite (March 2016) ******* ID# 10813 ****

 ** Profile: "SCHEMATIC1-simple_RC_Filter"  [ C:\Users\OHSEHOON\Desktop\pispice\simple_RC_Filter-PSpiceFiles\SCHEMATIC1\simple_RC_Fil


 ****     CIRCUIT DESCRIPTION


******************************************************************************




** Creating circuit file "simple_RC_Filter.cir" 
** WARNING: THIS AUTOMATICALLY GENERATED FILE MAY BE OVERWRITTEN BY SUBSEQUENT SIMULATIONS

*Libraries: 
* Profile Libraries :
* Local Libraries :
* From [PSPICE NETLIST] section of C:\Users\OHSEHOON\AppData\Roaming\SPB_Data\cdssetup\OrCAD_PSpice\17.2.0\PSpice.ini file:
.lib "nomd.lib" 

*Analysis directives: 
.AC DEC 100 10 10mega
.OPTIONS ADVCONV
.PROBE64 V(alias(*)) I(alias(*)) W(alias(*)) D(alias(*)) NOISE(alias(*)) 
.INC "..\SCHEMATIC1.net" 



**** INCLUDING SCHEMATIC1.net ****
* source SIMPLE_RC_FILTER
R_R1         0 N00171  1k TC=0,0 
V_V1         N00107 0 DC 0Vdc AC 1Vac 
C_C1         N00171 N00107  1u  TC=0,0 

**** RESUMING simple_RC_Filter.cir ****
.END

**** 06/24/20 10:35:58 ******* PSpice Lite (March 2016) ******* ID# 10813 ****

 ** Profile: "SCHEMATIC1-simple_RC_Filter"  [ C:\Users\OHSEHOON\Desktop\pispice\simple_RC_Filter-PSpiceFiles\SCHEMATIC1\simple_RC_Fil


 ****     SMALL SIGNAL BIAS SOLUTION       TEMPERATURE =   27.000 DEG C


******************************************************************************



 NODE   VOLTAGE     NODE   VOLTAGE     NODE   VOLTAGE     NODE   VOLTAGE


(N00107)    0.0000 (N00171)    0.0000 




    VOLTAGE SOURCE CURRENTS
    NAME         CURRENT

    V_V1         0.000E+00

    TOTAL POWER DISSIPATION   0.00E+00  WATTS



          JOB CONCLUDED

**** 06/24/20 10:35:58 ******* PSpice Lite (March 2016) ******* ID# 10813 ****

 ** Profile: "SCHEMATIC1-simple_RC_Filter"  [ C:\Users\OHSEHOON\Desktop\pispice\simple_RC_Filter-PSpiceFiles\SCHEMATIC1\simple_RC_Fil


 ****     JOB STATISTICS SUMMARY


******************************************************************************



  Total job time (using Solver 1)   =         .05
