
**** 06/16/20 10:30:02 ******* PSpice Lite (March 2016) ******* ID# 10813 ****

 ** Profile: "SCHEMATIC1-orcad14week1"  [ C:\Users\OHSEHOON\Desktop\pispice\orcad14week1-PSpiceFiles\SCHEMATIC1\orcad14week1.sim ] 


 ****     CIRCUIT DESCRIPTION


******************************************************************************




** Creating circuit file "orcad14week1.cir" 
** WARNING: THIS AUTOMATICALLY GENERATED FILE MAY BE OVERWRITTEN BY SUBSEQUENT SIMULATIONS

*Libraries: 
* Profile Libraries :
* Local Libraries :
* From [PSPICE NETLIST] section of C:\Users\OHSEHOON\AppData\Roaming\SPB_Data\cdssetup\OrCAD_PSpice\17.2.0\PSpice.ini file:
.lib "nomd.lib" 

*Analysis directives: 
.AC DEC 100 1 10k
.OPTIONS ADVCONV
.PROBE64 V(alias(*)) I(alias(*)) W(alias(*)) D(alias(*)) NOISE(alias(*)) 
.INC "..\SCHEMATIC1.net" 



**** INCLUDING SCHEMATIC1.net ****
* source ORCAD14WEEK1
V_V2         N00136 N00155  
+PWL 0s 0 1m 0 1m 1 3m 1 3m 0 
R_R1         N00136 N00297  1k TC=0,0 
C_C1         N00155 N00297  1u  TC=0,0 

**** RESUMING orcad14week1.cir ****
.END

ERROR(ORPSIM-15142): Node N00136 is floating

ERROR(ORPSIM-15142): Node N00155 is floating

ERROR(ORPSIM-15142): Node N00297 is floating
