
**** 06/16/20 11:29:17 ******* PSpice Lite (March 2016) ******* ID# 10813 ****

 ** Profile: "SCHEMATIC1-orcad14week3"  [ C:\Users\OHSEHOON\Desktop\pispice\orcad14week3-PSpiceFiles\SCHEMATIC1\orcad14week3.sim ] 


 ****     CIRCUIT DESCRIPTION


******************************************************************************




** Creating circuit file "orcad14week3.cir" 
** WARNING: THIS AUTOMATICALLY GENERATED FILE MAY BE OVERWRITTEN BY SUBSEQUENT SIMULATIONS

*Libraries: 
* Profile Libraries :
* Local Libraries :
* From [PSPICE NETLIST] section of C:\Users\OHSEHOON\AppData\Roaming\SPB_Data\cdssetup\OrCAD_PSpice\17.2.0\PSpice.ini file:
.lib "nomd.lib" 

*Analysis directives: 
.TRAN  0 8m 0 
.OPTIONS ADVCONV
.PROBE64 V(alias(*)) I(alias(*)) W(alias(*)) D(alias(*)) NOISE(alias(*)) 
.INC "..\SCHEMATIC1.net" 



**** INCLUDING SCHEMATIC1.net ****
* source ORCAD14WEEK3
X_TX1    N00129 N00186 N00105 N00117 SCHEMATIC1_TX1 
R_R1         N00179 N00129  1 TC=0,0 
R_R2         N00117 N00105  100k TC=0,0 
V_V1         N00179 N00186  
+SIN 0 10 200 0 0 0

.subckt SCHEMATIC1_TX1 1 2 3 4  
L1_TX1         1 2 1
L2_TX1         3 4 2
K_TX1         L1_TX1 L2_TX1 0.99 K3019PL_3C8
.ends SCHEMATIC1_TX1

**** RESUMING orcad14week3.cir ****
.END

ERROR(ORPSIM-15142): Node N00179 is floating

ERROR(ORPSIM-15142): Node N00129 is floating

ERROR(ORPSIM-15142): Node N00117 is floating

ERROR(ORPSIM-15142): Node N00105 is floating

ERROR(ORPSIM-15142): Node N00186 is floating
