
**** 06/16/20 11:35:46 ******* PSpice Lite (March 2016) ******* ID# 10813 ****

 ** Profile: "SCHEMATIC1-orcad14week3"  [ C:\Users\OHSEHOON\Desktop\pispice\orcad14week3-PSpiceFiles\SCHEMATIC1\orcad14week3.sim ] 


 ****     CIRCUIT DESCRIPTION


******************************************************************************




** Creating circuit file "orcad14week3.cir" 
** WARNING: THIS AUTOMATICALLY GENERATED FILE MAY BE OVERWRITTEN BY SUBSEQUENT SIMULATIONS

*Libraries: 
* Profile Libraries :
* Local Libraries :
* From [PSPICE NETLIST] section of C:\Users\OHSEHOON\AppData\Roaming\SPB_Data\cdssetup\OrCAD_PSpice\17.2.0\PSpice.ini file:
.lib "nomd.lib" 

*Analysis directives: 
.TRAN  0 8m 0 
.OPTIONS ADVCONV
.PROBE64 V(alias(*)) I(alias(*)) W(alias(*)) D(alias(*)) NOISE(alias(*)) 
.INC "..\SCHEMATIC1.net" 



**** INCLUDING SCHEMATIC1.net ****
* source ORCAD14WEEK3
X_TX1    N00129 0 N00105 0 SCHEMATIC1_TX1 
R_R1         N00179 N00129  1 TC=0,0 
R_R2         0 N00105  100k TC=0,0 
V_V1         N00179 0  
+SIN 0 10 200 0 0 0

.subckt SCHEMATIC1_TX1 1 2 3 4  
L1_TX1         1 2 1000
L2_TX1         3 4 2000
K_TX1         L1_TX1 L2_TX1 0.5 K3019PL_3C8
.ends SCHEMATIC1_TX1

**** RESUMING orcad14week3.cir ****
.END

**** 06/16/20 11:35:46 ******* PSpice Lite (March 2016) ******* ID# 10813 ****

 ** Profile: "SCHEMATIC1-orcad14week3"  [ C:\Users\OHSEHOON\Desktop\pispice\orcad14week3-PSpiceFiles\SCHEMATIC1\orcad14week3.sim ] 


 ****     Ferromagnetic Core MODEL PARAMETERS


******************************************************************************




               K3019PL_3C8     K3C8            
       LEVEL    2               2            
        AREA    1.38                         
        PATH    4.52                         
          MS  415.200000E+03  415.200000E+03 
           A   44.82           44.82         
           C     .4112           .4112       
           K   25.74           25.74         


**** 06/16/20 11:35:46 ******* PSpice Lite (March 2016) ******* ID# 10813 ****

 ** Profile: "SCHEMATIC1-orcad14week3"  [ C:\Users\OHSEHOON\Desktop\pispice\orcad14week3-PSpiceFiles\SCHEMATIC1\orcad14week3.sim ] 


 ****     INITIAL TRANSIENT SOLUTION       TEMPERATURE =   27.000 DEG C


******************************************************************************



 NODE   VOLTAGE     NODE   VOLTAGE     NODE   VOLTAGE     NODE   VOLTAGE


(N00105)    0.0000 (N00129)    0.0000 (N00179)    0.0000 




    VOLTAGE SOURCE CURRENTS
    NAME         CURRENT

    V_V1         0.000E+00

    TOTAL POWER DISSIPATION   0.00E+00  WATTS



          JOB CONCLUDED

**** 06/16/20 11:35:46 ******* PSpice Lite (March 2016) ******* ID# 10813 ****

 ** Profile: "SCHEMATIC1-orcad14week3"  [ C:\Users\OHSEHOON\Desktop\pispice\orcad14week3-PSpiceFiles\SCHEMATIC1\orcad14week3.sim ] 


 ****     JOB STATISTICS SUMMARY


******************************************************************************



  Total job time (using Solver 1)   =         .09
