
**** 06/10/20 15:06:58 ******* PSpice Lite (March 2016) ******* ID# 10813 ****

 ** Profile: "SCHEMATIC1-orcad13week6"  [ C:\Users\OHSEHOON\Desktop\pispice\orcad13week7-PSpiceFiles\SCHEMATIC1\orcad13week6.sim ] 


 ****     CIRCUIT DESCRIPTION


******************************************************************************




** Creating circuit file "orcad13week6.cir" 
** WARNING: THIS AUTOMATICALLY GENERATED FILE MAY BE OVERWRITTEN BY SUBSEQUENT SIMULATIONS

*Libraries: 
* Profile Libraries :
.INC "C:\Users\OHSEHOON\Desktop\pispice\orcad13week7-PSpiceFiles\SCHEMATIC1\orcad13week6\orcad13week6_profile.inc" 
* Local Libraries :
* From [PSPICE NETLIST] section of C:\Users\OHSEHOON\AppData\Roaming\SPB_Data\cdssetup\OrCAD_PSpice\17.2.0\PSpice.ini file:

**** INCLUDING orcad13week6_profile.inc ****
.STMLIB ".\orcad13week6.stl" 

**** RESUMING orcad13week6.cir ****
.lib "nomd.lib" 

*Analysis directives: 
.TRAN  0 1600ns 0 
.OPTIONS ADVCONV
.PROBE64 V(alias(*)) I(alias(*)) W(alias(*)) D(alias(*)) NOISE(alias(*)) 
.INC "..\SCHEMATIC1.net" 



**** INCLUDING SCHEMATIC1.net ****
* source ORCAD13WEEK7
X_U4A         N01635 N01723 N01837 $G_DPWR $G_DGND 7408 PARAMS:
+ IO_LEVEL=0 MNTYMXDLY=0
X_U5A         N01703 N01731 SUM $G_DPWR $G_DGND 7486 PARAMS:
+ IO_LEVEL=0 MNTYMXDLY=0
X_U6A         N01703 N01731 N01817 $G_DPWR $G_DGND 7408 PARAMS:
+ IO_LEVEL=0 MNTYMXDLY=0
X_U3A         N01635 N01723 N01703 $G_DPWR $G_DGND 7486 PARAMS:
+ IO_LEVEL=0 MNTYMXDLY=0
U_A1         STIM(1,0) $G_DPWR $G_DGND N01635 IO_STM STIMULUS=A1
U_B1         STIM(1,0) $G_DPWR $G_DGND N01723 IO_STM STIMULUS=B1
X_U7A         N01817 N01837 CARRY $G_DPWR $G_DGND 7432 PARAMS:
+ IO_LEVEL=0 MNTYMXDLY=0
U_B0         STIM(1,0) $G_DPWR $G_DGND N02154 IO_STM STIMULUS=B0
X_U2A         N02104 N02154 N01731 $G_DPWR $G_DGND 7408 PARAMS:
+ IO_LEVEL=0 MNTYMXDLY=0
U_A0         STIM(1,0) $G_DPWR $G_DGND N02104 IO_STM STIMULUS=A0
X_U1A         N02104 N02154 SUM1 $G_DPWR $G_DGND 7486 PARAMS:
+ IO_LEVEL=0 MNTYMXDLY=0

**** RESUMING orcad13week6.cir ****
.END

* C:\Users\OHSEHOON\Desktop\pispice\orcad13week7-PSpiceFiles\SCHEMATIC1\orcad13week6\orcad13week6.stl written on Wed Jun 10 15:05:46 2020
* by Stimulus Editor -- Lite Version 17.2.0
;!Stimulus Get
;! A0 Digital B0 Digital A1 Digital B1 Digital
;!Ok
;!Plot Axis_Settings
;!Xrange 0s 6.4us
;!AutoUniverse
;!XminRes 1ns
;!YminRes 1n
;!Ok
.STIMULUS B1 STIM (1, 1) ;! CLOCKP 1.6u 0.8u 0 0
+   +0s 0
+   +800ns 1
+   Repeat Forever
+      +800ns 0
+      +800ns 1
+   EndRepeat
.STIMULUS A1 STIM (1, 1) ;! CLOCKP 0.8u 0.4u 0 0
+   +0s 0
+   +400ns 1
+   Repeat Forever
+      +400ns 0
+      +400ns 1
+   EndRepeat
.STIMULUS B0 STIM (1, 1) ;! CLOCKP 0.4u 0.2u 0 0
+   +0s 0
+   +200ns 1
+   Repeat Forever
+      +200ns 0
+      +200ns 1
+   EndRepeat
.STIMULUS A0 STIM (1, 1) ;! CLOCKP 0.2u 0.1u 0 0
+   +0s 0
+   +100ns 1
+   Repeat Forever
+      +100ns 0
+      +100ns 1
+   EndRepeat

**** 06/10/20 15:06:58 ******* PSpice Lite (March 2016) ******* ID# 10813 ****

 ** Profile: "SCHEMATIC1-orcad13week6"  [ C:\Users\OHSEHOON\Desktop\pispice\orcad13week7-PSpiceFiles\SCHEMATIC1\orcad13week6.sim ] 


 ****     Digital Gate MODEL PARAMETERS


******************************************************************************




               D_08            D_86_1          D_86_2          D_86_3          
      TPLHMN    7.000000E-09    3.600000E-09    4.800000E-09    2.400000E-09 
      TPLHTY   17.500000E-09    9.000000E-09   12.000000E-09    6.000000E-09 
      TPLHMX   27.000000E-09   17.000000E-09   24.000000E-09    6.000000E-09 
      TPHLMN    4.800000E-09    2.000000E-09    2.800000E-09    2.400000E-09 
      TPHLTY   12.000000E-09    5.000000E-09    7.000000E-09    6.000000E-09 
      TPHLMX   19.000000E-09   11.000000E-09   16.000000E-09    6.000000E-09 


               D_32            D0_GATE         
      TPLHMN    4.000000E-09    0            
      TPLHTY   10.000000E-09    0            
      TPLHMX   15.000000E-09    0            
      TPHLMN    5.600000E-09    0            
      TPHLTY   14.000000E-09    0            
      TPHLMX   22.000000E-09    0            


**** 06/10/20 15:06:58 ******* PSpice Lite (March 2016) ******* ID# 10813 ****

 ** Profile: "SCHEMATIC1-orcad13week6"  [ C:\Users\OHSEHOON\Desktop\pispice\orcad13week7-PSpiceFiles\SCHEMATIC1\orcad13week6.sim ] 


 ****     Digital IO  MODEL PARAMETERS


******************************************************************************




               IO_STM          IO_STD          
        DRVL    0             104            
        DRVH    0              96.4          
       AtoD1                 AtoD_STD        
       AtoD2                 AtoD_STD_NX     
       AtoD3                 AtoD_STD        
       AtoD4                 AtoD_STD_NX     
       DtoA1 DtoA_STM        DtoA_STD        
       DtoA2 DtoA_STM        DtoA_STD        
       DtoA3 DtoA_STM        DtoA_STD        
       DtoA4 DtoA_STM        DtoA_STD        
      TSWHL1                    1.511000E-09 
      TSWHL2                    1.487000E-09 
      TSWHL3                    1.511000E-09 
      TSWHL4                    1.487000E-09 
      TSWLH1                    3.517000E-09 
      TSWLH2                    3.564000E-09 
      TSWLH3                    3.517000E-09 
      TSWLH4                    3.564000E-09 
       TPWRT  100.000000E+03  100.000000E+03 



          JOB CONCLUDED

**** 06/10/20 15:06:58 ******* PSpice Lite (March 2016) ******* ID# 10813 ****

 ** Profile: "SCHEMATIC1-orcad13week6"  [ C:\Users\OHSEHOON\Desktop\pispice\orcad13week7-PSpiceFiles\SCHEMATIC1\orcad13week6.sim ] 


 ****     JOB STATISTICS SUMMARY


******************************************************************************



  Total job time                    =         .09
